<?xml version="1.0" encoding="UTF-8"?>

<!-- generated on 2026-01-20 14:02:04 by Eclipse SUMO netedit Version 1.23.1
<neteditConfiguration xmlns:xsi="http://www.w3.org/2001/XMLSchema-instance" xsi:noNamespaceSchemaLocation="http://sumo.dlr.de/xsd/neteditConfiguration.xsd">

    <input>
        <sumo-net-file value="C:\Users\Komputer\OneDrive\Pulpit\PRACA\Baseline_rondo\RL_rondo.net.xml"/>
    </input>

    <output>
        <output-file value="C:\Users\Komputer\OneDrive\Pulpit\PRACA\Baseline_rondo\RL_rondo.net.xml"/>
    </output>

    <processing>
        <geometry.min-radius.fix.railways value="false"/>
        <geometry.avoid-overlap value="false"/>
        <geometry.max-grade.fix value="false"/>
        <offset.disable-normalization value="true"/>
        <lefthand value="0"/>
    </processing>

    <junctions>
        <no-internal-links value="false"/>
        <no-turnarounds value="true"/>
        <junctions.corner-detail value="5"/>
        <junctions.limit-turn-speed value="5.50"/>
        <rectangular-lane-cut value="0"/>
    </junctions>

    <pedestrian>
        <walkingareas value="0"/>
    </pedestrian>

</neteditConfiguration>
-->

<net version="1.20" junctionCornerDetail="5" limitTurnSpeed="5.50" avoidOverlap="0" xmlns:xsi="http://www.w3.org/2001/XMLSchema-instance" xsi:noNamespaceSchemaLocation="http://sumo.dlr.de/xsd/net_file.xsd">

    <location netOffset="0.00,0.00" convBoundary="-200.01,-200.00,200.00,200.00" origBoundary="-200.00,-200.00,200.00,200.00" projParameter="!"/>

    <edge id=":1_w0" function="walkingarea">
        <lane id=":1_w0_0" index="0" allow="pedestrian" speed="2.78" length="12.78" width="2.00" shape="-5.39,200.28 -7.39,200.39 7.39,200.28 5.39,200.20"/>
    </edge>
    <edge id=":2_w0" function="walkingarea">
        <lane id=":2_w0_0" index="0" allow="pedestrian" speed="2.78" length="12.77" width="2.00" shape="200.31,5.39 200.42,7.38 200.39,-7.39 200.28,-5.39 201.78,-4.54 202.68,-2.56 202.99,-0.01 202.69,2.54 201.80,4.53"/>
    </edge>
    <edge id=":3_w0" function="walkingarea">
        <lane id=":3_w0_0" index="0" allow="pedestrian" speed="2.78" length="12.77" width="2.00" shape="5.38,-200.33 7.38,-200.46 -7.39,-200.32 -5.39,-200.23"/>
    </edge>
    <edge id=":4_w0" function="walkingarea">
        <lane id=":4_w0_0" index="0" allow="pedestrian" speed="2.78" length="12.27" width="2.00" shape="-201.21,-5.04 -202.46,-6.61 -205.13,-4.06 -206.66,-1.60 -207.04,0.76 -206.28,3.02 -204.37,5.20 -201.33,7.28 -200.35,5.53 -202.67,3.95 -204.12,2.29 -204.70,0.57 -204.41,-1.23 -203.24,-3.10"/>
    </edge>
    <edge id=":J0_0" function="internal">
        <lane id=":J0_0_0" index="0" disallow="pedestrian" speed="6.02" length="2.06" shape="6.69,29.20 4.90,30.22"/>
        <lane id=":J0_0_1" index="1" disallow="pedestrian" speed="6.73" length="2.36" shape="6.69,29.20 4.57,30.22"/>
    </edge>
    <edge id=":J0_2" function="internal">
        <lane id=":J0_2_0" index="0" disallow="pedestrian" speed="11.79" length="13.40" shape="6.69,29.20 3.18,30.27 -0.38,30.52 -3.98,29.94 -7.64,28.52"/>
        <lane id=":J0_2_1" index="1" disallow="pedestrian" speed="10.65" length="13.40" shape="5.43,26.25 2.60,27.12 -0.27,27.31 -3.20,26.83 -6.17,25.68"/>
    </edge>
    <edge id=":J0_6" function="internal">
        <lane id=":J0_6_0" index="0" disallow="pedestrian" speed="6.02" length="4.90" shape="4.90,30.22 3.78,31.46 3.33,32.92 3.54,34.60"/>
        <lane id=":J0_6_1" index="0" disallow="pedestrian" speed="6.73" length="6.58" shape="4.57,30.22 3.58,30.69 1.46,32.10 0.34,33.40 0.20,34.62"/>
    </edge>
    <edge id=":J0_4" function="internal">
        <lane id=":J0_4_0" index="0" disallow="pedestrian" speed="6.18" length="6.81" shape="-6.25,34.64 -5.86,32.46 -5.96,30.71 -6.55,29.40 -7.64,28.52"/>
        <lane id=":J0_4_1" index="1" disallow="pedestrian" speed="7.49" length="10.42" shape="-2.94,34.63 -2.49,31.64 -2.88,29.15 -4.11,27.16 -6.17,25.68"/>
    </edge>
    <edge id=":J0_c0" function="crossing" crossingEdges="-E1 E1">
        <lane id=":J0_c0_0" index="0" allow="pedestrian" speed="2.78" length="11.77" width="4.00" shape="4.46,28.22 -7.31,28.30" outlineShape="4.47,30.22 -7.30,30.30 -8.39,29.93 -9.28,31.72 -9.43,32.58 -7.50,33.10 -7.30,30.30 -7.32,26.30 4.44,26.22 4.47,30.22 5.30,34.89 7.22,34.30 8.11,32.50 7.32,30.67 6.45,31.11 5.77,31.61 5.30,32.16 5.02,32.77 4.95,33.42"/>
    </edge>
    <edge id=":J0_w0" function="walkingarea">
        <lane id=":J0_w0_0" index="0" allow="pedestrian" speed="2.78" length="4.88" width="4.00" shape="4.47,30.22 5.30,34.89 7.22,34.30 8.11,32.50 7.32,30.67 6.45,31.11 5.77,31.61 5.30,32.16 5.02,32.77 4.95,33.42"/>
    </edge>
    <edge id=":J0_w1" function="walkingarea">
        <lane id=":J0_w1_0" index="0" allow="pedestrian" speed="2.78" length="3.23" width="4.00" shape="-8.39,29.93 -9.28,31.72 -9.43,32.58 -7.50,33.10 -7.30,30.30 -7.55,33.13 -7.44,32.19 -7.47,31.40 -7.63,30.76 -7.92,30.28"/>
    </edge>
    <edge id=":J1_0" function="internal">
        <lane id=":J1_0_0" index="0" disallow="pedestrian" speed="7.78" length="10.09" shape="37.75,6.72 34.64,6.43 32.10,6.79 30.14,7.82 28.74,9.50"/>
        <lane id=":J1_0_1" index="1" disallow="pedestrian" speed="9.11" length="14.11" shape="38.33,3.57 34.16,3.22 30.70,3.84 27.96,5.42 25.94,7.96"/>
    </edge>
    <edge id=":J1_2" function="internal">
        <lane id=":J1_2_0" index="0" disallow="pedestrian" speed="6.45" length="4.78" shape="30.58,-7.69 31.46,-5.31 32.89,-3.82 33.06,-3.77"/>
        <lane id=":J1_2_1" index="1" disallow="pedestrian" speed="7.27" length="6.37" shape="30.58,-7.69 31.76,-3.95 33.13,-1.92"/>
    </edge>
    <edge id=":J1_4" function="internal">
        <lane id=":J1_4_0" index="0" disallow="pedestrian" speed="13.89" length="16.79" shape="30.58,-7.69 31.64,-2.50 31.90,1.23 31.04,4.81 28.74,9.50"/>
        <lane id=":J1_4_1" index="1" disallow="pedestrian" speed="13.89" length="16.79" shape="27.46,-7.02 28.39,-2.50 28.65,0.76 27.93,3.87 25.94,7.96"/>
    </edge>
    <edge id=":J1_6" function="internal">
        <lane id=":J1_6_0" index="0" disallow="pedestrian" speed="6.45" length="4.41" shape="33.06,-3.77 34.86,-3.23 37.38,-3.52"/>
        <lane id=":J1_6_1" index="0" disallow="pedestrian" speed="7.27" length="5.60" shape="33.13,-1.92 33.42,-1.48 35.57,-0.31 38.19,-0.42"/>
    </edge>
    <edge id=":J1_c0" function="crossing" crossingEdges="-E2 E2">
        <lane id=":J1_c0_0" index="0" allow="pedestrian" speed="2.78" length="12.50" width="4.00" shape="35.03,-4.55 35.50,7.93" outlineShape="37.03,-4.63 37.50,7.86 35.69,8.06 34.14,8.05 33.51,8.15 32.98,-6.07 33.07,-5.92 33.78,-5.28 34.67,-4.93 35.73,-4.86"/>
    </edge>
    <edge id=":J1_w0" function="walkingarea">
        <lane id=":J1_w0_0" index="0" allow="pedestrian" speed="2.78" length="4.65" width="4.00" shape="30.15,10.27 31.90,11.23 37.10,10.26 37.47,8.29 37.50,7.86 35.69,8.06 34.14,8.05 32.81,8.27 31.70,8.71 30.81,9.38"/>
    </edge>
    <edge id=":J1_w1" function="walkingarea">
        <lane id=":J1_w1_0" index="0" allow="pedestrian" speed="2.78" length="3.53" width="4.00" shape="37.03,-4.63 36.97,-5.06 36.46,-7.00 34.11,-8.44 32.15,-8.03 32.52,-6.83 33.07,-5.92 33.78,-5.28 34.67,-4.93 35.73,-4.86"/>
    </edge>
    <edge id=":J2_0" function="internal">
        <lane id=":J2_0_0" index="0" disallow="pedestrian" speed="6.43" length="8.23" shape="6.50,-37.45 6.05,-35.26 6.39,-33.41 7.49,-31.88 9.38,-30.69"/>
        <lane id=":J2_0_1" index="1" disallow="pedestrian" speed="7.95" length="13.09" shape="3.48,-38.52 2.78,-35.04 3.30,-32.09 5.06,-29.67 8.06,-27.77"/>
    </edge>
    <edge id=":J2_2" function="internal">
        <lane id=":J2_2_0" index="0" disallow="pedestrian" speed="6.68" length="4.09" shape="-6.13,-30.01 -4.39,-31.31 -3.41,-32.96"/>
        <lane id=":J2_2_1" index="1" disallow="pedestrian" speed="7.48" length="4.89" shape="-6.13,-30.01 -3.13,-31.95 -2.24,-32.91"/>
    </edge>
    <edge id=":J2_4" function="internal">
        <lane id=":J2_4_0" index="0" disallow="pedestrian" speed="11.84" length="14.63" shape="-6.13,-30.01 -2.23,-31.61 1.65,-32.26 5.52,-31.95 9.38,-30.69"/>
        <lane id=":J2_4_1" index="1" disallow="pedestrian" speed="10.75" length="14.63" shape="-4.63,-27.19 -1.43,-28.51 1.76,-29.04 4.92,-28.80 8.06,-27.77"/>
    </edge>
    <edge id=":J2_6" function="internal">
        <lane id=":J2_6_0" index="0" disallow="pedestrian" speed="6.68" length="4.42" shape="-3.41,-32.96 -3.18,-34.96 -3.71,-37.31"/>
        <lane id=":J2_6_1" index="0" disallow="pedestrian" speed="7.48" length="6.04" shape="-2.24,-32.91 -1.23,-33.99 -0.42,-36.14 -0.70,-38.39"/>
    </edge>
    <edge id=":J2_c0" function="crossing" crossingEdges="-E3 E3">
        <lane id=":J2_c0_0" index="0" allow="pedestrian" speed="2.78" length="11.88" width="4.00" shape="-4.49,-30.89 7.39,-31.03" outlineShape="-4.52,-32.89 7.36,-33.03 10.04,-32.15 10.86,-33.97 9.89,-36.24 8.01,-36.91 7.37,-33.05 7.41,-29.03 -4.47,-28.89 -6.88,-31.43 -6.00,-32.02 -5.36,-32.73 -4.96,-33.56 -4.80,-34.51 -4.89,-35.58"/>
    </edge>
    <edge id=":J2_w0" function="walkingarea">
        <lane id=":J2_w0_0" index="0" allow="pedestrian" speed="2.78" length="4.42" width="4.00" shape="10.04,-32.15 10.86,-33.97 9.89,-36.24 8.01,-36.91 7.36,-33.03 7.74,-35.86 7.71,-34.91 7.93,-34.06 8.39,-33.32 9.09,-32.68"/>
    </edge>
    <edge id=":J2_w1" function="walkingarea">
        <lane id=":J2_w1_0" index="0" allow="pedestrian" speed="2.78" length="4.42" width="4.00" shape="-4.52,-32.89 -5.22,-36.77 -7.10,-36.09 -7.82,-33.19 -6.88,-31.43 -6.00,-32.02 -5.36,-32.73 -4.96,-33.56 -4.80,-34.51 -4.89,-35.58"/>
    </edge>
    <edge id=":J3_0" function="internal">
        <lane id=":J3_0_0" index="0" disallow="pedestrian" speed="6.63" length="4.50" shape="-24.73,8.80 -25.89,6.76 -27.49,5.54 -27.63,5.52"/>
        <lane id=":J3_0_1" index="1" disallow="pedestrian" speed="7.44" length="5.67" shape="-24.73,8.80 -26.38,5.45 -27.67,4.00"/>
    </edge>
    <edge id=":J3_2" function="internal">
        <lane id=":J3_2_0" index="0" disallow="pedestrian" speed="13.89" length="16.78" shape="-24.73,8.80 -26.45,3.87 -27.03,0.26 -26.58,-3.40 -25.22,-8.47"/>
        <lane id=":J3_2_1" index="1" disallow="pedestrian" speed="13.89" length="16.78" shape="-21.74,7.65 -23.26,3.30 -23.76,0.11 -23.35,-3.12 -22.15,-7.60"/>
    </edge>
    <edge id=":J3_6" function="internal">
        <lane id=":J3_6_0" index="0" disallow="pedestrian" speed="6.63" length="4.43" shape="-27.63,5.52 -29.52,5.14 -31.99,5.57"/>
        <lane id=":J3_6_1" index="0" disallow="pedestrian" speed="7.44" length="5.81" shape="-27.67,4.00 -28.31,3.28 -30.49,2.30 -32.94,2.51"/>
    </edge>
    <edge id=":J3_4" function="internal">
        <lane id=":J3_4_0" index="0" disallow="pedestrian" speed="6.57" length="9.04" shape="-32.25,-4.70 -29.73,-4.40 -27.72,-4.93 -26.22,-6.29 -25.22,-8.47"/>
        <lane id=":J3_4_1" index="1" disallow="pedestrian" speed="8.06" length="14.10" shape="-33.04,-1.60 -29.15,-1.15 -26.03,-2.01 -23.70,-4.15 -22.15,-7.60"/>
    </edge>
    <edge id=":J3_c0" function="crossing" crossingEdges="-E4 E4">
        <lane id=":J3_c0_0" index="0" allow="pedestrian" speed="2.78" length="12.26" width="4.00" shape="-25.60,6.40 -25.92,-5.86" outlineShape="-27.60,6.55 -27.92,-5.81 -26.76,-8.91 -28.69,-9.46 -31.36,-8.19 -31.86,-6.25 -27.92,-5.81 -23.92,-5.91 -23.61,6.35 -26.22,9.38 -26.74,8.34 -27.41,7.57 -28.22,7.06 -29.18,6.81 -30.27,6.82"/>
    </edge>
    <edge id=":J3_w0" function="walkingarea">
        <lane id=":J3_w0_0" index="0" allow="pedestrian" speed="2.78" length="4.65" width="4.00" shape="-27.60,6.45 -31.51,7.09 -30.92,9.01 -28.08,10.10 -26.22,9.38 -26.74,8.34 -27.41,7.57 -28.22,7.06 -29.18,6.81 -30.27,6.82"/>
    </edge>
    <edge id=":J3_w1" function="walkingarea">
        <lane id=":J3_w1_0" index="0" allow="pedestrian" speed="2.78" length="4.66" width="4.00" shape="-26.76,-8.91 -28.69,-9.46 -31.36,-8.19 -31.86,-6.25 -27.92,-5.81 -30.59,-6.04 -29.49,-6.09 -28.56,-6.40 -27.79,-6.97 -27.20,-7.81"/>
    </edge>

    <edge id="-E1" from="J0" to="1" priority="2" spreadType="center" shape="1.77,30.88 8.68,53.35 3.20,200.00">
        <lane id="-E1_0" index="0" allow="pedestrian" speed="13.89" length="166.47" width="2.00" shape="6.26,34.59 11.90,52.93 6.39,200.24"/>
        <lane id="-E1_1" index="1" disallow="pedestrian" speed="13.89" length="166.47" shape="3.54,34.60 9.28,53.27 3.80,200.14"/>
        <lane id="-E1_2" index="2" disallow="pedestrian" speed="13.89" length="166.47" shape="0.20,34.62 6.07,53.69 0.60,199.95"/>
    </edge>
    <edge id="-E2" from="J1" to="2" priority="2" spreadType="center" shape="31.70,-1.40 65.36,-10.28 200.00,-3.20">
        <lane id="-E2_0" index="0" allow="pedestrian" speed="13.89" length="163.87" width="2.00" shape="36.71,-6.03 65.03,-13.50 200.34,-6.39"/>
        <lane id="-E2_1" index="1" disallow="pedestrian" speed="13.89" length="163.87" shape="37.38,-3.52 65.30,-10.88 200.20,-3.79"/>
        <lane id="-E2_2" index="2" disallow="pedestrian" speed="13.89" length="163.87" shape="38.19,-0.42 65.63,-7.66 199.94,-0.60"/>
    </edge>
    <edge id="-E3" from="J2" to="3" priority="2" spreadType="center" shape="-1.82,-33.82 -9.49,-55.17 -3.20,-200.00">
        <lane id="-E3_0" index="0" allow="pedestrian" speed="13.89" length="164.00" width="2.00" shape="-6.16,-36.43 -12.71,-54.68 -6.39,-200.28"/>
        <lane id="-E3_1" index="1" disallow="pedestrian" speed="13.89" length="164.00" shape="-3.71,-37.31 -10.09,-55.08 -3.79,-200.16"/>
        <lane id="-E3_2" index="2" disallow="pedestrian" speed="13.89" length="164.00" shape="-0.70,-38.39 -6.87,-55.57 -0.60,-199.94"/>
    </edge>
    <edge id="-E4" from="J3" to="4" priority="2" spreadType="center" shape="-27.48,3.54 -50.85,10.79 -187.64,10.15 -200.01,3.20">
        <lane id="-E4_0" index="0" allow="pedestrian" speed="13.89" length="170.02" width="2.00" shape="-31.22,8.05 -50.37,13.99 -188.48,13.35 -200.84,6.41"/>
        <lane id="-E4_1" index="1" disallow="pedestrian" speed="13.89" length="170.02" shape="-31.99,5.57 -50.76,11.39 -187.80,10.75 -199.56,4.14"/>
        <lane id="-E4_2" index="2" disallow="pedestrian" speed="13.89" length="170.02" shape="-32.94,2.51 -51.24,8.19 -186.95,7.55 -197.99,1.35"/>
    </edge>
    <edge id="E0" from="J1" to="J0" priority="2" spreadType="center" shape="32.08,2.18 20.97,22.42 -0.67,31.70">
        <lane id="E0_0" index="0" allow="pedestrian" speed="13.89" length="31.13" width="2.00" shape="31.02,10.75 23.24,24.93 7.72,31.58"/>
        <lane id="E0_1" index="1" disallow="pedestrian" speed="13.89" length="31.13" shape="28.74,9.50 21.40,22.89 6.69,29.20"/>
        <lane id="E0_2" index="2" disallow="pedestrian" speed="13.89" length="31.13" shape="25.94,7.96 19.12,20.38 5.43,26.25"/>
    </edge>
    <edge id="E1" from="1" to="J0" priority="2" spreadType="center" shape="-3.20,200.00 -10.89,54.38 -4.63,30.89">
        <lane id="E1_0" index="0" allow="pedestrian" speed="13.89" length="167.04" width="2.00" shape="-6.39,200.34 -14.11,54.04 -8.46,32.84"/>
        <lane id="E1_1" index="1" disallow="pedestrian" speed="13.89" length="167.04" shape="-3.79,200.20 -11.49,54.32 -6.25,34.64"/>
        <lane id="E1_2" index="2" disallow="pedestrian" speed="13.89" length="167.04" shape="-0.60,199.96 -8.27,54.65 -2.94,34.63"/>
    </edge>
    <edge id="E2" from="2" to="J1" priority="2" spreadType="center" shape="200.00,3.20 64.30,10.98 31.71,5.00">
        <lane id="E2_0" index="0" allow="pedestrian" speed="13.89" length="163.05" width="2.00" shape="200.37,6.38 64.10,14.20 37.28,9.28"/>
        <lane id="E2_1" index="1" disallow="pedestrian" speed="13.89" length="163.05" shape="200.22,3.79 64.26,11.58 37.75,6.72"/>
        <lane id="E2_2" index="2" disallow="pedestrian" speed="13.89" length="163.05" shape="199.95,0.60 64.46,8.37 38.33,3.57"/>
    </edge>
    <edge id="E3" from="3" to="J2" priority="2" spreadType="center" shape="3.20,-200.00 12.15,-55.17 4.58,-33.83">
        <lane id="E3_0" index="0" allow="pedestrian" speed="13.89" length="164.03" width="2.00" shape="6.38,-200.39 15.38,-54.72 8.95,-36.58"/>
        <lane id="E3_1" index="1" disallow="pedestrian" speed="13.89" length="164.03" shape="3.79,-200.23 12.76,-55.08 6.50,-37.45"/>
        <lane id="E3_2" index="2" disallow="pedestrian" speed="13.89" length="164.03" shape="0.60,-199.95 9.52,-55.54 3.48,-38.52"/>
    </edge>
    <edge id="E4" from="4" to="J3" priority="2" spreadType="center" shape="-199.99,-3.20 -190.56,-10.74 -51.14,-8.89 -27.47,-2.86">
        <lane id="E4_0" index="0" allow="pedestrian" speed="13.89" length="171.03" width="2.00" shape="-201.83,-5.82 -191.66,-13.95 -50.72,-12.08 -31.61,-7.22"/>
        <lane id="E4_1" index="1" disallow="pedestrian" speed="13.89" length="171.03" shape="-200.21,-3.79 -190.77,-11.34 -51.06,-9.49 -32.25,-4.70"/>
        <lane id="E4_2" index="2" disallow="pedestrian" speed="13.89" length="171.03" shape="-198.21,-1.29 -189.66,-8.13 -51.48,-6.29 -33.04,-1.60"/>
    </edge>
    <edge id="E5" from="J2" to="J1" priority="2" spreadType="center" shape="1.70,-33.50 26.89,-22.12 32.08,2.18">
        <lane id="E5_0" index="0" allow="pedestrian" speed="13.89" length="34.77" width="2.00" shape="10.45,-33.06 29.68,-24.37 33.13,-8.24"/>
        <lane id="E5_1" index="1" disallow="pedestrian" speed="13.89" length="34.77" shape="9.38,-30.69 27.41,-22.54 30.58,-7.69"/>
        <lane id="E5_2" index="2" disallow="pedestrian" speed="13.89" length="34.77" shape="8.06,-27.77 24.62,-20.29 27.46,-7.02"/>
    </edge>
    <edge id="E6" from="J3" to="J2" priority="2" spreadType="center" shape="-27.21,0.72 -20.91,-21.47 1.70,-33.50">
        <lane id="E6_0" index="0" allow="pedestrian" speed="13.89" length="31.08" width="2.00" shape="-27.72,-9.18 -23.62,-23.65 -7.35,-32.31"/>
        <lane id="E6_1" index="1" disallow="pedestrian" speed="13.89" length="31.08" shape="-25.22,-8.47 -21.42,-21.88 -6.13,-30.01"/>
        <lane id="E6_2" index="2" disallow="pedestrian" speed="13.89" length="31.08" shape="-22.15,-7.60 -18.71,-19.69 -4.63,-27.19"/>
    </edge>
    <edge id="E7" from="J0" to="J3" priority="2" spreadType="center" shape="-1.43,30.94 -18.88,22.26 -27.21,0.72">
        <lane id="E7_0" index="0" allow="pedestrian" speed="13.89" length="27.82" width="2.00" shape="-8.84,30.83 -21.42,24.57 -27.15,9.74"/>
        <lane id="E7_1" index="1" disallow="pedestrian" speed="13.89" length="27.82" shape="-7.64,28.52 -19.36,22.69 -24.73,8.80"/>
        <lane id="E7_2" index="2" disallow="pedestrian" speed="13.89" length="27.82" shape="-6.17,25.68 -16.82,20.38 -21.74,7.65"/>
    </edge>

    <junction id="1" type="dead_end" x="0.00" y="200.00" incLanes="-E1_0 -E1_1 -E1_2" intLanes="" shape="1.00,199.95 -7.39,200.39 7.39,200.28 -1.00,199.96"/>
    <junction id="2" type="dead_end" x="200.00" y="0.00" incLanes="-E2_0 -E2_1 -E2_2" intLanes="" shape="199.94,-1.00 200.42,7.38 200.39,-7.39 199.95,1.00"/>
    <junction id="3" type="dead_end" x="0.00" y="-200.00" incLanes="-E3_0 -E3_1 -E3_2" intLanes="" shape="-1.00,-199.94 7.38,-200.46 -7.39,-200.32 1.00,-199.96"/>
    <junction id="4" type="dead_end" x="-200.00" y="0.00" incLanes="-E4_0 -E4_1 -E4_2" intLanes="" shape="-201.33,7.28 -197.21,-0.04 -202.46,-6.61 -205.13,-4.06 -206.66,-1.60 -207.04,0.76 -206.28,3.02 -204.37,5.20"/>
    <junction id="J0" type="priority" x="-0.67" y="31.70" incLanes="E0_0 E0_1 E0_2 E1_0 E1_1 E1_2 :J0_w0_0" intLanes=":J0_6_0 :J0_6_1 :J0_2_0 :J0_2_1 :J0_4_0 :J0_4_1 :J0_c0_0" shape="-8.06,34.65 6.74,34.59 6.89,33.69 7.08,33.32 7.35,33.00 7.69,32.73 8.11,32.50 4.80,24.78 1.30,25.76 -0.43,25.84 -2.15,25.65 -3.85,25.18 -5.53,24.45 -9.40,31.91 -8.66,32.52 -8.40,32.94 -8.21,33.43 -8.10,34.01" customShape="1">
        <request index="0" response="1000000" foes="1000000" cont="1"/>
        <request index="1" response="1000000" foes="1000000" cont="1"/>
        <request index="2" response="0000000" foes="0110000" cont="0"/>
        <request index="3" response="0000000" foes="0100000" cont="0"/>
        <request index="4" response="0000100" foes="1000100" cont="0"/>
        <request index="5" response="0001100" foes="1001100" cont="0"/>
        <request index="6" response="0110000" foes="0110011" cont="0"/>
    </junction>
    <junction id="J1" type="priority" x="31.76" y="1.80" incLanes="E2_0 E2_1 E2_2 E5_0 E5_1 E5_2 :J1_w1_0" intLanes=":J1_0_0 :J1_0_1 :J1_6_0 :J1_6_1 :J1_4_0 :J1_4_1 :J1_c0_0" shape="37.10,10.26 38.62,2.00 38.60,1.12 36.46,-7.00 35.34,-6.93 34.90,-7.11 34.55,-7.41 34.29,-7.86 34.11,-8.44 25.89,-6.69 26.53,-3.72 26.93,-1.42 27.02,0.52 26.70,2.39 25.90,4.52 24.54,7.19 31.90,11.23 32.91,10.35 33.68,10.11 34.64,10.02 35.78,10.07">
        <request index="0" response="0010000" foes="1010000" cont="0"/>
        <request index="1" response="0110000" foes="1110000" cont="0"/>
        <request index="2" response="1000000" foes="1000000" cont="1"/>
        <request index="3" response="1000000" foes="1000000" cont="1"/>
        <request index="4" response="0000000" foes="0000011" cont="0"/>
        <request index="5" response="0000000" foes="0000010" cont="0"/>
        <request index="6" response="0000011" foes="0001111" cont="0"/>
    </junction>
    <junction id="J2" type="priority" x="1.38" y="-33.88" incLanes="E3_0 E3_1 E3_2 E6_0 E6_1 E6_2 :J2_w1_0" intLanes=":J2_0_0 :J2_0_1 :J2_6_0 :J2_6_1 :J2_4_0 :J2_4_1 :J2_c0_0" shape="7.40,-26.31 10.86,-33.97 10.07,-34.53 9.85,-34.88 9.75,-35.29 9.76,-35.74 9.89,-36.24 1.98,-39.05 1.58,-38.28 1.38,-38.17 1.19,-38.24 1.00,-38.50 0.81,-38.93 -7.10,-36.09 -6.84,-34.83 -6.90,-34.31 -7.08,-33.86 -7.39,-33.49 -7.82,-33.19 -3.88,-25.78 -1.97,-26.64 -0.08,-27.19 1.81,-27.43 3.68,-27.37 5.55,-27.00">
        <request index="0" response="0010000" foes="1010000" cont="0"/>
        <request index="1" response="0110000" foes="1110000" cont="0"/>
        <request index="2" response="1000000" foes="1000000" cont="1"/>
        <request index="3" response="1000000" foes="1000000" cont="1"/>
        <request index="4" response="0000000" foes="0000011" cont="0"/>
        <request index="5" response="0000000" foes="0000010" cont="0"/>
        <request index="6" response="0000011" foes="0001111" cont="0"/>
    </junction>
    <junction id="J3" type="priority" x="-27.53" y="0.34" incLanes="E7_0 E7_1 E7_2 E4_0 E4_1 E4_2 :J3_w0_0" intLanes=":J3_6_0 :J3_6_1 :J3_2_0 :J3_2_1 :J3_4_0 :J3_4_1 :J3_c0_0" shape="-28.08,10.10 -20.25,7.07 -21.30,4.19 -21.92,1.95 -22.12,0.03 -21.95,-1.90 -21.43,-4.19 -20.61,-7.16 -28.69,-9.46 -29.21,-8.51 -29.61,-8.23 -30.11,-8.08 -30.69,-8.07 -31.36,-8.19 -33.44,-0.05 -33.41,0.98 -30.92,9.01 -29.65,8.83 -29.14,8.95 -28.70,9.20 -28.35,9.58">
        <request index="0" response="1000000" foes="1000000" cont="1"/>
        <request index="1" response="1000000" foes="1000000" cont="1"/>
        <request index="2" response="0000000" foes="0110000" cont="0"/>
        <request index="3" response="0000000" foes="0100000" cont="0"/>
        <request index="4" response="0000100" foes="1000100" cont="0"/>
        <request index="5" response="0001100" foes="1001100" cont="0"/>
        <request index="6" response="0110000" foes="0110011" cont="0"/>
    </junction>

    <junction id=":J0_6_0" type="internal" x="4.90" y="30.22" incLanes=":J0_0_0" intLanes=":J0_c0_0"/>
    <junction id=":J0_6_1" type="internal" x="4.57" y="30.22" incLanes=":J0_0_1" intLanes=":J0_c0_0"/>
    <junction id=":J1_6_0" type="internal" x="33.06" y="-3.77" incLanes=":J1_2_0" intLanes=":J1_c0_0"/>
    <junction id=":J1_6_1" type="internal" x="33.13" y="-1.92" incLanes=":J1_2_1" intLanes=":J1_c0_0"/>
    <junction id=":J2_6_0" type="internal" x="-3.41" y="-32.96" incLanes=":J2_2_0" intLanes=":J2_c0_0"/>
    <junction id=":J2_6_1" type="internal" x="-2.24" y="-32.91" incLanes=":J2_2_1" intLanes=":J2_c0_0"/>
    <junction id=":J3_6_0" type="internal" x="-27.63" y="5.52" incLanes=":J3_0_0" intLanes=":J3_c0_0"/>
    <junction id=":J3_6_1" type="internal" x="-27.67" y="4.00" incLanes=":J3_0_1" intLanes=":J3_c0_0"/>

    <connection from="E0" to="-E1" fromLane="1" toLane="1" via=":J0_0_0" dir="r" state="m"/>
    <connection from="E0" to="-E1" fromLane="1" toLane="2" via=":J0_0_1" dir="r" state="m"/>
    <connection from="E0" to="E7" fromLane="1" toLane="1" via=":J0_2_0" dir="s" state="M"/>
    <connection from="E0" to="E7" fromLane="2" toLane="2" via=":J0_2_1" dir="s" state="M"/>
    <connection from="E1" to="E7" fromLane="1" toLane="1" via=":J0_4_0" dir="r" state="m" visibility="9.00"/>
    <connection from="E1" to="E7" fromLane="2" toLane="2" via=":J0_4_1" dir="r" state="m" visibility="9.00"/>
    <connection from="E2" to="E0" fromLane="1" toLane="1" via=":J1_0_0" dir="r" state="m" visibility="9.00"/>
    <connection from="E2" to="E0" fromLane="2" toLane="2" via=":J1_0_1" dir="r" state="m" visibility="9.00"/>
    <connection from="E3" to="E5" fromLane="1" toLane="1" via=":J2_0_0" dir="r" state="m" visibility="9.00"/>
    <connection from="E3" to="E5" fromLane="2" toLane="2" via=":J2_0_1" dir="r" state="m" visibility="9.00"/>
    <connection from="E4" to="E6" fromLane="1" toLane="1" via=":J3_4_0" dir="r" state="m" visibility="9.00"/>
    <connection from="E4" to="E6" fromLane="2" toLane="2" via=":J3_4_1" dir="r" state="m" visibility="9.00"/>
    <connection from="E5" to="-E2" fromLane="1" toLane="1" via=":J1_2_0" dir="r" state="m"/>
    <connection from="E5" to="-E2" fromLane="1" toLane="2" via=":J1_2_1" dir="r" state="m"/>
    <connection from="E5" to="E0" fromLane="1" toLane="1" via=":J1_4_0" dir="s" state="M"/>
    <connection from="E5" to="E0" fromLane="2" toLane="2" via=":J1_4_1" dir="s" state="M"/>
    <connection from="E6" to="-E3" fromLane="1" toLane="1" via=":J2_2_0" dir="r" state="m"/>
    <connection from="E6" to="-E3" fromLane="1" toLane="2" via=":J2_2_1" dir="r" state="m"/>
    <connection from="E6" to="E5" fromLane="1" toLane="1" via=":J2_4_0" dir="s" state="M"/>
    <connection from="E6" to="E5" fromLane="2" toLane="2" via=":J2_4_1" dir="s" state="M"/>
    <connection from="E7" to="-E4" fromLane="1" toLane="1" via=":J3_0_0" dir="r" state="m"/>
    <connection from="E7" to="-E4" fromLane="1" toLane="2" via=":J3_0_1" dir="r" state="m"/>
    <connection from="E7" to="E6" fromLane="1" toLane="1" via=":J3_2_0" dir="s" state="M"/>
    <connection from="E7" to="E6" fromLane="2" toLane="2" via=":J3_2_1" dir="s" state="M"/>

    <connection from=":J0_0" to="-E1" fromLane="0" toLane="1" via=":J0_6_0" dir="r" state="m"/>
    <connection from=":J0_6" to="-E1" fromLane="0" toLane="1" dir="r" state="m"/>
    <connection from=":J0_0" to="-E1" fromLane="1" toLane="2" via=":J0_6_1" dir="r" state="m"/>
    <connection from=":J0_6" to="-E1" fromLane="1" toLane="2" dir="r" state="m"/>
    <connection from=":J0_2" to="E7" fromLane="0" toLane="1" dir="s" state="M"/>
    <connection from=":J0_2" to="E7" fromLane="1" toLane="2" dir="s" state="M"/>
    <connection from=":J0_4" to="E7" fromLane="0" toLane="1" dir="r" state="M"/>
    <connection from=":J0_4" to="E7" fromLane="1" toLane="2" dir="r" state="M"/>
    <connection from=":J1_0" to="E0" fromLane="0" toLane="1" dir="r" state="M"/>
    <connection from=":J1_0" to="E0" fromLane="1" toLane="2" dir="r" state="M"/>
    <connection from=":J1_2" to="-E2" fromLane="0" toLane="1" via=":J1_6_0" dir="r" state="m"/>
    <connection from=":J1_6" to="-E2" fromLane="0" toLane="1" dir="r" state="m"/>
    <connection from=":J1_2" to="-E2" fromLane="1" toLane="2" via=":J1_6_1" dir="r" state="m"/>
    <connection from=":J1_6" to="-E2" fromLane="1" toLane="2" dir="r" state="m"/>
    <connection from=":J1_4" to="E0" fromLane="0" toLane="1" dir="s" state="M"/>
    <connection from=":J1_4" to="E0" fromLane="1" toLane="2" dir="s" state="M"/>
    <connection from=":J2_0" to="E5" fromLane="0" toLane="1" dir="r" state="M"/>
    <connection from=":J2_0" to="E5" fromLane="1" toLane="2" dir="r" state="M"/>
    <connection from=":J2_2" to="-E3" fromLane="0" toLane="1" via=":J2_6_0" dir="r" state="m"/>
    <connection from=":J2_6" to="-E3" fromLane="0" toLane="1" dir="r" state="m"/>
    <connection from=":J2_2" to="-E3" fromLane="1" toLane="2" via=":J2_6_1" dir="r" state="m"/>
    <connection from=":J2_6" to="-E3" fromLane="1" toLane="2" dir="r" state="m"/>
    <connection from=":J2_4" to="E5" fromLane="0" toLane="1" dir="s" state="M"/>
    <connection from=":J2_4" to="E5" fromLane="1" toLane="2" dir="s" state="M"/>
    <connection from=":J3_0" to="-E4" fromLane="0" toLane="1" via=":J3_6_0" dir="r" state="m"/>
    <connection from=":J3_6" to="-E4" fromLane="0" toLane="1" dir="r" state="m"/>
    <connection from=":J3_0" to="-E4" fromLane="1" toLane="2" via=":J3_6_1" dir="r" state="m"/>
    <connection from=":J3_6" to="-E4" fromLane="1" toLane="2" dir="r" state="m"/>
    <connection from=":J3_2" to="E6" fromLane="0" toLane="1" dir="s" state="M"/>
    <connection from=":J3_2" to="E6" fromLane="1" toLane="2" dir="s" state="M"/>
    <connection from=":J3_4" to="E6" fromLane="0" toLane="1" dir="r" state="M"/>
    <connection from=":J3_4" to="E6" fromLane="1" toLane="2" dir="r" state="M"/>

    <connection from=":1_w0" to="E1" fromLane="0" toLane="0" dir="s" state="M"/>
    <connection from="-E1" to=":1_w0" fromLane="0" toLane="0" dir="s" state="M"/>
    <connection from=":2_w0" to="E2" fromLane="0" toLane="0" dir="s" state="M"/>
    <connection from="-E2" to=":2_w0" fromLane="0" toLane="0" dir="s" state="M"/>
    <connection from=":3_w0" to="E3" fromLane="0" toLane="0" dir="s" state="M"/>
    <connection from="-E3" to=":3_w0" fromLane="0" toLane="0" dir="s" state="M"/>
    <connection from=":4_w0" to="E4" fromLane="0" toLane="0" dir="s" state="M"/>