<?xml version="1.0" encoding="UTF-8"?>
<sumoConfiguration xmlns:xsi="http://www.w3.org/2001/XMLSchema-instance" xsi:noNamespaceSchemaLocation="http://sumo.dlr.de/xsd/sumoConfiguration.xsd">
    <input>
        <net-file value="RL_rondo.net.xml"/>
	    <route-files value="RL_rondo.rou.xml"/>
        <additional-files value="RL_rondo.add.xml"/>
    </input>
</sumoConfiguration>