<?xml version="1.0" encoding="UTF-8"?>

<!-- generated on 2025-11-28 13:18:45 by Eclipse SUMO netedit Version 1.23.1
<neteditConfiguration xmlns:xsi="http://www.w3.org/2001/XMLSchema-instance" xsi:noNamespaceSchemaLocation="http://sumo.dlr.de/xsd/neteditConfiguration.xsd">

    <input>
        <sumo-net-file value="C:\Users\Komputer\OneDrive\Pulpit\PRACA\RL_2.net.xml"/>
    </input>

    <output>
        <output-file value="C:\Users\Komputer\OneDrive\Pulpit\PRACA\RL_2.net.xml"/>
    </output>

    <processing>
        <geometry.min-radius.fix.railways value="false"/>
        <geometry.avoid-overlap value="false"/>
        <geometry.max-grade.fix value="false"/>
        <offset.disable-normalization value="true"/>
        <lefthand value="0"/>
    </processing>

    <junctions>
        <no-internal-links value="false"/>
        <no-turnarounds value="true"/>
        <junctions.corner-detail value="5"/>
        <junctions.limit-turn-speed value="5.50"/>
        <rectangular-lane-cut value="0"/>
    </junctions>

    <pedestrian>
        <walkingareas value="true"/>
    </pedestrian>

</neteditConfiguration>
-->

<net version="1.20" junctionCornerDetail="5" walkingareas="true" limitTurnSpeed="5.50" avoidOverlap="0" xmlns:xsi="http://www.w3.org/2001/XMLSchema-instance" xsi:noNamespaceSchemaLocation="http://sumo.dlr.de/xsd/net_file.xsd">

    <location netOffset="0.00,0.00" convBoundary="-3.23,-120.82,310.56,109.13" origBoundary="-10000000000.00,-10000000000.00,10000000000.00,10000000000.00" projParameter="!"/>

    <edge id=":Node1_0" function="internal">
        <lane id=":Node1_0_0" index="0" allow="bus" speed="13.03" length="39.60" shape="11.68,19.92 1.63,18.28 -5.52,13.38 -9.77,5.20 -11.11,-6.26"/>
        <lane id=":Node1_0_1" index="1" disallow="pedestrian" speed="12.17" length="34.42" shape="11.68,16.72 3.04,15.29 -3.10,10.98 -6.76,3.81 -7.91,-6.23"/>
        <lane id=":Node1_0_2" index="2" disallow="pedestrian" speed="11.25" length="29.24" shape="11.68,13.52 4.45,12.29 -0.69,8.59 -3.75,2.42 -4.71,-6.21"/>
    </edge>
    <edge id=":Node1_3" function="internal">
        <lane id=":Node1_3_0" index="0" allow="bus" speed="5.37" length="5.84" shape="8.08,-6.11 8.30,-4.52 8.97,-3.39 10.10,-2.71 11.68,-2.48"/>
        <lane id=":Node1_3_1" index="1" allow="bus" speed="6.35" length="8.59" shape="8.08,-6.11 8.29,-3.12 8.96,-0.99 10.09,0.29 11.68,0.72"/>
        <lane id=":Node1_3_2" index="2" disallow="pedestrian" speed="7.86" length="13.72" shape="4.88,-6.13 5.28,-1.73 6.55,1.41 8.68,3.29 11.68,3.92"/>
        <lane id=":Node1_3_3" index="3" disallow="pedestrian" speed="9.13" length="18.88" shape="1.68,-6.16 2.27,-0.35 4.13,3.80 7.27,6.29 11.68,7.12"/>
    </edge>
    <edge id=":Node1_w0" function="walkingarea">
        <lane id=":Node1_w0_0" index="0" allow="pedestrian" speed="2.78" length="40.60" width="2.00" shape="-15.91,-6.29 -17.91,-6.31 -16.36,-1.01 -12.25,5.38 -6.47,11.94 0.04,17.76 6.40,21.93 11.68,23.52 11.68,21.52 6.55,20.08 0.56,16.28 -5.47,10.95 -10.76,4.87 -14.51,-1.15"/>
    </edge>
    <edge id=":Node1_w1" function="walkingarea">
        <lane id=":Node1_w1_0" index="0" allow="pedestrian" speed="2.78" length="1.42" width="2.00" shape="11.68,-4.08 11.68,-6.08 9.68,-6.10 9.74,-5.48 9.90,-4.98 10.18,-4.58 10.57,-4.30 11.07,-4.14"/>
    </edge>
    <edge id=":Node2_0" function="internal">
        <lane id=":Node2_0_0" index="0" allow="bus" speed="6.53" length="4.82" shape="155.77,25.62 155.42,23.13 154.37,21.35 154.17,21.22"/>
        <lane id=":Node2_0_1" index="1" allow="bus" speed="7.35" length="7.16" shape="155.77,25.62 155.42,21.73 154.37,18.95 154.17,18.76"/>
    </edge>
    <edge id=":Node2_2" function="internal">
        <lane id=":Node2_2_0" index="0" allow="bus" speed="13.89" length="33.80" shape="155.77,25.62 155.77,-8.08"/>
        <lane id=":Node2_2_1" index="1" allow="bus" speed="13.89" length="33.80" shape="155.77,25.62 156.27,15.60 157.37,8.77 158.47,1.95 158.97,-8.08"/>
    </edge>
    <edge id=":Node2_4" function="internal">
        <lane id=":Node2_4_0" index="0" allow="bus" speed="12.63" length="18.60" shape="155.77,25.62 158.92,18.79 166.50,11.74 167.12,11.37"/>
    </edge>
    <edge id=":Node2_5" function="internal">
        <lane id=":Node2_5_0" index="0" disallow="pedestrian" speed="8.69" length="4.63" shape="158.97,25.62 158.49,21.02"/>
    </edge>
    <edge id=":Node2_6" function="internal">
        <lane id=":Node2_6_0" index="0" disallow="pedestrian" speed="13.89" length="33.90" shape="158.97,25.62 159.47,15.60 160.57,8.77 161.67,1.95 162.17,-8.08"/>
        <lane id=":Node2_6_1" index="1" disallow="pedestrian" speed="13.89" length="33.90" shape="162.17,25.62 162.67,15.60 163.77,8.77 164.87,1.95 165.37,-8.08"/>
    </edge>
    <edge id=":Node2_8" function="internal">
        <lane id=":Node2_8_0" index="0" disallow="pedestrian" speed="11.06" length="3.60" shape="165.37,25.62 166.26,22.14"/>
    </edge>
    <edge id=":Node2_36" function="internal">
        <lane id=":Node2_36_0" index="0" allow="bus" speed="6.53" length="4.29" shape="154.17,21.22 152.62,20.28 150.17,19.92"/>
        <lane id=":Node2_36_1" index="0" allow="bus" speed="7.35" length="4.65" shape="154.17,18.76 152.62,17.28 150.17,16.72"/>
    </edge>
    <edge id=":Node2_37" function="internal">
        <lane id=":Node2_37_0" index="0" allow="bus" speed="12.63" length="18.49" shape="167.12,11.37 175.76,6.23 183.91,4.04"/>
    </edge>
    <edge id=":Node2_38" function="internal">
        <lane id=":Node2_38_0" index="0" disallow="pedestrian" speed="8.69" length="12.31" shape="158.49,21.02 158.42,20.33 156.77,16.55 154.02,14.28 150.17,13.52"/>
    </edge>
    <edge id=":Node2_39" function="internal">
        <lane id=":Node2_39_0" index="0" disallow="pedestrian" speed="11.06" length="24.60" shape="166.26,22.14 167.04,19.07 171.37,13.15 177.32,8.86 183.88,7.24"/>
    </edge>
    <edge id=":Node2_9" function="internal">
        <lane id=":Node2_9_0" index="0" allow="bus" speed="6.50" length="4.77" shape="183.80,20.04 181.33,20.37 179.58,21.41 179.45,21.62"/>
        <lane id=":Node2_9_1" index="1" allow="bus" speed="7.32" length="7.12" shape="183.80,20.04 179.93,20.36 177.18,21.40 176.97,21.62"/>
    </edge>
    <edge id=":Node2_11" function="internal">
        <lane id=":Node2_11_0" index="0" allow="bus" speed="13.89" length="33.73" shape="183.80,20.04 150.17,19.92"/>
        <lane id=":Node2_11_1" index="1" allow="bus" speed="13.89" length="33.73" shape="183.80,20.04 173.79,19.47 166.98,18.33 160.18,17.22 150.17,16.72"/>
    </edge>
    <edge id=":Node2_13" function="internal">
        <lane id=":Node2_13_0" index="0" allow="bus" speed="12.69" length="18.69" shape="183.80,20.04 176.99,16.87 169.93,9.29 169.51,8.58"/>
    </edge>
    <edge id=":Node2_14" function="internal">
        <lane id=":Node2_14_0" index="0" disallow="pedestrian" speed="8.67" length="4.59" shape="183.82,16.84 179.25,17.29"/>
    </edge>
    <edge id=":Node2_15" function="internal">
        <lane id=":Node2_15_0" index="0" disallow="pedestrian" speed="13.89" length="33.87" shape="183.82,16.84 173.81,16.27 166.99,15.13 160.18,14.02 150.17,13.52"/>
        <lane id=":Node2_15_1" index="1" disallow="pedestrian" speed="13.89" length="33.87" shape="183.84,13.64 173.82,13.07 167.00,11.93 160.19,10.82 150.17,10.32"/>
    </edge>
    <edge id=":Node2_17" function="internal">
        <lane id=":Node2_17_0" index="0" disallow="pedestrian" speed="11.12" length="3.67" shape="183.86,10.44 180.31,9.52"/>
    </edge>
    <edge id=":Node2_40" function="internal">
        <lane id=":Node2_40_0" index="0" allow="bus" speed="6.50" length="4.28" shape="179.45,21.62 178.52,23.16 178.17,25.62"/>
        <lane id=":Node2_40_1" index="0" allow="bus" speed="7.32" length="4.64" shape="176.97,21.62 175.52,23.16 174.97,25.62"/>
    </edge>
    <edge id=":Node2_41" function="internal">
        <lane id=":Node2_41_0" index="0" allow="bus" speed="12.69" length="18.37" shape="169.51,8.58 164.41,0.06 162.17,-8.08"/>
    </edge>
    <edge id=":Node2_42" function="internal">
        <lane id=":Node2_42_0" index="0" disallow="pedestrian" speed="8.67" length="12.32" shape="179.25,17.29 178.55,17.36 174.78,18.99 172.52,21.75 171.77,25.62"/>
    </edge>
    <edge id=":Node2_43" function="internal">
        <lane id=":Node2_43_0" index="0" disallow="pedestrian" speed="11.12" length="24.58" shape="180.31,9.52 177.29,8.75 171.34,4.43 167.03,-1.52 165.37,-8.08"/>
    </edge>
    <edge id=":Node2_18" function="internal">
        <lane id=":Node2_18_0" index="0" allow="bus" speed="6.60" length="5.00" shape="178.17,-8.08 178.53,-5.59 179.62,-3.81 179.96,-3.61"/>
        <lane id=":Node2_18_1" index="1" allow="bus" speed="7.40" length="7.34" shape="178.17,-8.08 178.53,-4.19 179.61,-1.41 179.94,-1.10"/>
    </edge>
    <edge id=":Node2_20" function="internal">
        <lane id=":Node2_20_0" index="0" allow="bus" speed="13.89" length="33.80" shape="178.17,-8.08 178.17,25.62"/>
        <lane id=":Node2_20_1" index="1" allow="bus" speed="13.89" length="33.80" shape="178.17,-8.08 177.67,1.95 176.57,8.77 175.47,15.60 174.97,25.62"/>
    </edge>
    <edge id=":Node2_22" function="internal">
        <lane id=":Node2_22_0" index="0" allow="bus" speed="12.64" length="18.61" shape="178.17,-8.08 175.04,-1.27 167.50,5.77 166.82,6.18"/>
    </edge>
    <edge id=":Node2_23" function="internal">
        <lane id=":Node2_23_0" index="0" disallow="pedestrian" speed="8.74" length="4.57" shape="174.97,-8.08 175.45,-3.53"/>
    </edge>
    <edge id=":Node2_24" function="internal">
        <lane id=":Node2_24_0" index="0" disallow="pedestrian" speed="13.89" length="33.90" shape="174.97,-8.08 174.47,1.95 173.37,8.77 172.27,15.60 171.77,25.62"/>
        <lane id=":Node2_24_1" index="1" disallow="pedestrian" speed="13.89" length="33.90" shape="171.77,-8.08 171.27,1.95 170.17,8.77 169.07,15.60 168.57,25.62"/>
    </edge>
    <edge id=":Node2_26" function="internal">
        <lane id=":Node2_26_0" index="0" disallow="pedestrian" speed="11.07" length="3.62" shape="168.57,-8.08 167.68,-4.57"/>
    </edge>
    <edge id=":Node2_44" function="internal">
        <lane id=":Node2_44_0" index="0" allow="bus" speed="6.60" length="4.26" shape="179.96,-3.61 181.42,-2.73 183.95,-2.36"/>
        <lane id=":Node2_44_1" index="0" allow="bus" speed="7.40" length="4.59" shape="179.94,-1.10 181.41,0.27 183.93,0.84"/>
    </edge>
    <edge id=":Node2_45" function="internal">
        <lane id=":Node2_45_0" index="0" allow="bus" speed="12.64" length="18.36" shape="166.82,6.18 158.29,11.29 150.17,13.52"/>
    </edge>
    <edge id=":Node2_46" function="internal">
        <lane id=":Node2_46_0" index="0" disallow="pedestrian" speed="8.74" length="12.46" shape="175.45,-3.53 175.53,-2.80 177.20,0.98 180.00,3.26 183.91,4.04"/>
    </edge>
    <edge id=":Node2_47" function="internal">
        <lane id=":Node2_47_0" index="0" disallow="pedestrian" speed="11.07" length="24.48" shape="167.68,-4.57 166.91,-1.55 162.62,4.37 156.70,8.66 150.17,10.32"/>
    </edge>
    <edge id=":Node2_27" function="internal">
        <lane id=":Node2_27_0" index="0" allow="bus" speed="6.51" length="4.75" shape="150.17,-2.48 152.62,-2.83 154.37,-3.88 154.49,-4.08"/>
        <lane id=":Node2_27_1" index="1" allow="bus" speed="7.33" length="7.08" shape="150.17,-2.48 154.02,-2.83 156.77,-3.88 156.96,-4.08"/>
    </edge>
    <edge id=":Node2_29" function="internal">
        <lane id=":Node2_29_0" index="0" allow="bus" speed="13.89" length="33.88" shape="150.17,-2.48 183.95,-2.36"/>
        <lane id=":Node2_29_1" index="1" allow="bus" speed="13.89" length="33.88" shape="150.17,-2.48 160.22,-1.98 167.05,-0.87 173.88,0.27 183.93,0.84"/>
    </edge>
    <edge id=":Node2_31" function="internal">
        <lane id=":Node2_31_0" index="0" allow="bus" speed="12.65" length="18.58" shape="150.17,-2.48 156.97,0.66 164.02,8.24 164.40,8.88"/>
    </edge>
    <edge id=":Node2_32" function="internal">
        <lane id=":Node2_32_0" index="0" disallow="pedestrian" speed="8.67" length="4.60" shape="150.17,0.72 154.74,0.24"/>
    </edge>
    <edge id=":Node2_33" function="internal">
        <lane id=":Node2_33_0" index="0" disallow="pedestrian" speed="13.89" length="33.94" shape="150.17,0.72 160.21,1.22 167.04,2.33 173.87,3.47 183.91,4.04"/>
        <lane id=":Node2_33_1" index="1" disallow="pedestrian" speed="13.89" length="33.94" shape="150.17,3.92 160.20,4.42 167.03,5.53 173.85,6.67 183.88,7.24"/>
    </edge>
    <edge id=":Node2_35" function="internal">
        <lane id=":Node2_35_0" index="0" disallow="pedestrian" speed="11.08" length="3.60" shape="150.17,7.12 153.66,8.01"/>
    </edge>
    <edge id=":Node2_48" function="internal">
        <lane id=":Node2_48_0" index="0" allow="bus" speed="6.51" length="4.28" shape="154.49,-4.08 155.42,-5.63 155.77,-8.08"/>
        <lane id=":Node2_48_1" index="0" allow="bus" speed="7.33" length="4.64" shape="156.96,-4.08 158.42,-5.63 158.97,-8.08"/>
    </edge>
    <edge id=":Node2_49" function="internal">
        <lane id=":Node2_49_0" index="0" allow="bus" speed="12.65" length="18.46" shape="164.40,8.88 169.54,17.48 171.77,25.62"/>
    </edge>
    <edge id=":Node2_50" function="internal">
        <lane id=":Node2_50_0" index="0" disallow="pedestrian" speed="8.67" length="12.25" shape="154.74,0.24 155.42,0.17 159.17,-1.48 161.42,-4.23 162.17,-8.08"/>
    </edge>
    <edge id=":Node2_51" function="internal">
        <lane id=":Node2_51_0" index="0" disallow="pedestrian" speed="11.08" length="24.58" shape="153.66,8.01 156.71,8.79 162.63,13.11 166.92,19.06 168.57,25.62"/>
    </edge>
    <edge id=":Node2_c0" function="crossing" crossingEdges="Node2_7_NB Node2_7_SB">
        <lane id=":Node2_c0_0" index="0" allow="pedestrian" speed="2.78" length="25.60" width="4.00" shape="179.77,23.62 154.17,23.62" outlineShape="179.87,25.62 154.07,25.62 154.06,24.37 153.73,23.34 153.17,22.55 152.39,21.98 152.09,21.87 154.17,21.62 179.77,21.62 181.88,21.96 181.55,22.07 180.77,22.62 180.22,23.40 179.88,24.40"/>
    </edge>
    <edge id=":Node2_c1" function="crossing" crossingEdges="Node2_3_WB">
        <lane id=":Node2_c1_0" index="0" allow="pedestrian" speed="2.78" length="12.80" width="4.00" shape="181.87,8.82 181.78,21.62" outlineShape="183.87,8.84 183.78,21.64 183.78,21.74 182.56,21.74 181.55,22.07 180.77,22.62 180.22,23.40 180.11,23.72 179.78,21.61 179.87,8.81 183.87,8.84 179.87,8.81"/>
    </edge>
    <edge id=":Node2_c2" function="crossing" crossingEdges="Node2_3_EB">
        <lane id=":Node2_c2_0" index="0" allow="pedestrian" speed="2.78" length="12.80" width="4.00" shape="181.96,-3.98 181.87,8.82" outlineShape="183.96,-3.96 183.87,8.94 179.87,8.81 183.87,8.84 179.87,8.81 179.98,-6.56 180.24,-5.81 180.82,-5.01 181.63,-4.43 182.68,-4.08"/>
    </edge>
    <edge id=":Node2_c3" function="crossing" crossingEdges="Node2_5_NB">
        <lane id=":Node2_c3_0" index="0" allow="pedestrian" speed="2.78" length="12.80" width="4.00" shape="166.97,-6.08 179.77,-6.08" outlineShape="166.87,-8.08 179.87,-8.08 179.89,-6.83 180.24,-5.81 180.82,-5.01 181.63,-4.43 182.68,-4.08 166.97,-4.08"/>
    </edge>
    <edge id=":Node2_c4" function="crossing" crossingEdges="Node2_5_SB">
        <lane id=":Node2_c4_0" index="0" allow="pedestrian" speed="2.78" length="12.80" width="4.00" shape="154.17,-6.08 166.97,-6.08" outlineShape="154.07,-8.08 167.07,-8.08 166.97,-4.08 166.97,-8.08 166.97,-4.08 154.17,-4.08 152.06,-4.41 152.39,-4.52 153.17,-5.08 153.73,-5.86 154.06,-6.86"/>
    </edge>
    <edge id=":Node2_c5" function="crossing" crossingEdges="Node1_2_EB">
        <lane id=":Node2_c5_0" index="0" allow="pedestrian" speed="2.78" length="12.80" width="4.00" shape="152.17,8.72 152.17,-4.08" outlineShape="150.17,8.82 150.17,-4.08 154.17,-8.08 152.17,-8.08 150.17,-6.08 150.17,-4.08 154.17,-8.08 154.17,8.72"/>
    </edge>
    <edge id=":Node2_c6" function="crossing" crossingEdges="Node1_2_WB">
        <lane id=":Node2_c6_0" index="0" allow="pedestrian" speed="2.78" length="12.80" width="4.00" shape="152.17,21.52 152.17,8.72" outlineShape="150.17,21.52 150.17,8.62 154.17,8.72 150.17,8.72 154.17,8.72 154.17,21.52 153.82,23.63 153.73,23.34 153.17,22.55 152.39,21.98 151.39,21.63"/>
    </edge>
    <edge id=":Node2_w0" function="walkingarea">
        <lane id=":Node2_w0_0" index="0" allow="pedestrian" speed="2.78" length="3.34" width="4.00" shape="150.17,21.52 150.17,23.52 152.17,25.62 154.17,25.62 154.06,24.37 153.73,23.34 153.17,22.55 152.39,21.98 151.39,21.63"/>
    </edge>
    <edge id=":Node2_w1" function="walkingarea">
        <lane id=":Node2_w1_0" index="0" allow="pedestrian" speed="2.78" length="3.30" width="4.00" shape="179.77,25.62 181.77,25.62 183.77,23.64 183.78,21.64 182.56,21.74 181.55,22.07 180.77,22.62 180.22,23.40 179.88,24.40"/>
    </edge>
    <edge id=":Node2_w2" function="walkingarea">
        <lane id=":Node2_w2_0" index="0" allow="pedestrian" speed="2.78" length="3.43" width="4.00" shape="183.96,-3.96 183.98,-5.96 181.77,-8.08 179.77,-8.08 179.89,-6.83 180.24,-5.81 180.82,-5.01 181.63,-4.43 182.68,-4.08"/>
    </edge>
    <edge id=":Node2_w3" function="walkingarea">
        <lane id=":Node2_w3_0" index="0" allow="pedestrian" speed="2.78" length="3.30" width="4.00" shape="154.17,-8.08 152.17,-8.08 150.17,-6.08 150.17,-4.08 151.39,-4.19 152.39,-4.52 153.17,-5.08 153.73,-5.86 154.06,-6.86"/>
    </edge>
    <edge id=":Node2_w4" function="walkingarea">
        <lane id=":Node2_w4_0" index="0" allow="pedestrian" speed="2.78" length="0.10" width="4.00" shape="179.87,8.81 183.87,8.84 183.87,8.84 179.87,8.81"/>
    </edge>
    <edge id=":Node2_w5" function="walkingarea">
        <lane id=":Node2_w5_0" index="0" allow="pedestrian" speed="2.78" length="0.10" width="4.00" shape="166.97,-4.08 166.97,-8.08 166.97,-8.08 166.97,-4.08"/>
    </edge>
    <edge id=":Node2_w6" function="walkingarea">
        <lane id=":Node2_w6_0" index="0" allow="pedestrian" speed="2.78" length="0.10" width="4.00" shape="154.17,8.72 150.17,8.72 150.17,8.72 154.17,8.72"/>
    </edge>
    <edge id=":Node3_0" function="internal">
        <lane id=":Node3_0_0" index="0" allow="bus" speed="13.03" length="39.58" shape="321.76,-5.18 320.13,4.86 315.22,12.01 307.05,16.26 295.60,17.62"/>
        <lane id=":Node3_0_1" index="1" disallow="pedestrian" speed="12.17" length="34.40" shape="318.56,-5.18 317.13,3.45 312.83,9.60 305.66,13.25 295.62,14.42"/>
        <lane id=":Node3_0_2" index="2" disallow="pedestrian" speed="11.25" length="29.22" shape="315.36,-5.18 314.13,2.04 310.43,7.18 304.27,10.24 295.65,11.22"/>
    </edge>
    <edge id=":Node3_3" function="internal">
        <lane id=":Node3_3_0" index="0" allow="bus" speed="5.37" length="5.84" shape="295.73,-1.58 297.32,-1.80 298.45,-2.47 299.13,-3.60 299.36,-5.18"/>
        <lane id=":Node3_3_1" index="1" allow="bus" speed="6.35" length="8.59" shape="295.73,-1.58 298.72,-1.79 300.85,-2.46 302.13,-3.59 302.56,-5.18"/>
        <lane id=":Node3_3_2" index="2" disallow="pedestrian" speed="7.86" length="13.71" shape="295.71,1.62 300.11,1.22 303.25,-0.05 305.13,-2.18 305.76,-5.18"/>
        <lane id=":Node3_3_3" index="3" disallow="pedestrian" speed="9.13" length="18.87" shape="295.69,4.82 301.50,4.23 305.64,2.36 308.13,-0.77 308.96,-5.18"/>
    </edge>
    <edge id=":Node3_w0" function="walkingarea">
        <lane id=":Node3_w0_0" index="0" allow="pedestrian" speed="2.78" length="40.59" width="2.00" shape="295.57,22.42 295.55,24.42 300.85,22.86 307.23,18.74 313.79,12.97 319.61,6.45 323.77,0.10 325.36,-5.18 323.36,-5.18 321.92,-0.05 318.13,5.94 312.80,11.97 306.72,17.26 300.71,21.01"/>
    </edge>
    <edge id=":Node3_w1" function="walkingarea">
        <lane id=":Node3_w1_0" index="0" allow="pedestrian" speed="2.78" length="1.42" width="2.00" shape="297.76,-5.18 295.76,-5.18 295.75,-3.18 296.36,-3.24 296.86,-3.40 297.26,-3.68 297.54,-4.07 297.70,-4.57"/>
    </edge>
    <edge id=":Node4_0" function="internal">
        <lane id=":Node4_0_0" index="0" allow="bus" speed="5.37" length="5.77" shape="12.46,-109.62 10.89,-109.40 9.77,-108.73 9.09,-107.61 8.86,-106.05"/>
        <lane id=":Node4_0_1" index="1" allow="bus" speed="6.35" length="8.50" shape="12.46,-109.62 9.49,-109.40 7.37,-108.73 6.09,-107.62 5.66,-106.07"/>
        <lane id=":Node4_0_2" index="2" disallow="pedestrian" speed="7.86" length="13.57" shape="12.46,-112.82 8.10,-112.40 4.98,-111.14 3.10,-109.04 2.46,-106.10"/>
        <lane id=":Node4_0_3" index="3" disallow="pedestrian" speed="9.13" length="18.67" shape="12.46,-116.02 6.71,-115.40 2.59,-113.55 0.11,-110.45 -0.74,-106.12"/>
    </edge>
    <edge id=":Node4_4" function="internal">
        <lane id=":Node4_4_0" index="0" allow="bus" speed="13.04" length="39.17" shape="-13.54,-106.22 -11.85,-116.11 -6.96,-123.17 1.15,-127.41 12.46,-128.82"/>
        <lane id=":Node4_4_1" index="1" disallow="pedestrian" speed="12.18" length="34.04" shape="-10.34,-106.20 -8.86,-114.69 -4.57,-120.76 2.54,-124.41 12.46,-125.62"/>
        <lane id=":Node4_4_2" index="2" disallow="pedestrian" speed="11.25" length="28.91" shape="-7.14,-106.17 -5.87,-113.28 -2.18,-118.36 3.93,-121.40 12.46,-122.42"/>
    </edge>
    <edge id=":Node4_w0" function="walkingarea">
        <lane id=":Node4_w0_0" index="0" allow="pedestrian" speed="2.78" length="1.41" width="2.00" shape="10.46,-106.04 12.46,-106.02 12.46,-108.02 11.85,-107.96 11.35,-107.80 10.96,-107.52 10.69,-107.14 10.52,-106.64"/>
    </edge>
    <edge id=":Node4_w1" function="walkingarea">
        <lane id=":Node4_w1_0" index="0" allow="pedestrian" speed="2.78" length="40.29" width="2.00" shape="12.46,-133.62 12.46,-135.62 7.18,-134.06 0.85,-129.98 -5.65,-124.27 -11.41,-117.81 -15.54,-111.51 -17.14,-106.25 -15.14,-106.23 -13.69,-111.35 -9.93,-117.28 -4.65,-123.26 1.37,-128.49 7.33,-132.21"/>
    </edge>
    <edge id=":Node5_0" function="internal">
        <lane id=":Node5_0_0" index="0" allow="bus" speed="6.51" length="4.75" shape="155.77,-104.02 155.42,-106.47 154.37,-108.22 154.17,-108.34"/>
        <lane id=":Node5_0_1" index="1" allow="bus" speed="7.33" length="7.08" shape="155.77,-104.02 155.42,-107.87 154.37,-110.62 154.17,-110.81"/>
    </edge>
    <edge id=":Node5_2" function="internal">
        <lane id=":Node5_2_0" index="0" allow="bus" speed="13.15" length="36.10" shape="155.77,-104.02 157.52,-113.47 162.77,-120.22 171.52,-124.27 179.77,-125.18"/>
    </edge>
    <edge id=":Node5_3" function="internal">
        <lane id=":Node5_3_0" index="0" disallow="pedestrian" speed="8.67" length="12.74" shape="158.97,-104.02 158.42,-109.27 156.77,-113.02 154.17,-115.15"/>
        <lane id=":Node5_3_1" index="1" disallow="pedestrian" speed="9.84" length="17.93" shape="162.17,-104.02 161.42,-110.67 159.17,-115.42 155.42,-118.27 154.17,-118.50"/>
    </edge>
    <edge id=":Node5_5" function="internal">
        <lane id=":Node5_5_0" index="0" disallow="pedestrian" speed="11.36" length="25.63" shape="165.37,-104.02 166.52,-112.07 169.97,-117.82 175.72,-121.27 179.77,-121.85"/>
    </edge>
    <edge id=":Node5_19" function="internal">
        <lane id=":Node5_19_0" index="0" allow="bus" speed="6.51" length="4.28" shape="154.17,-108.34 152.62,-109.27 150.17,-109.62"/>
        <lane id=":Node5_19_1" index="0" allow="bus" speed="7.33" length="4.64" shape="154.17,-110.81 152.62,-112.27 150.17,-112.82"/>
    </edge>
    <edge id=":Node5_20" function="internal">
        <lane id=":Node5_20_0" index="0" allow="bus" speed="13.15" length="4.02" shape="179.77,-125.18 183.77,-125.62"/>
    </edge>
    <edge id=":Node5_21" function="internal">
        <lane id=":Node5_21_0" index="0" disallow="pedestrian" speed="8.67" length="4.12" shape="154.17,-115.15 154.02,-115.27 150.17,-116.02"/>
        <lane id=":Node5_21_1" index="0" disallow="pedestrian" speed="9.84" length="4.06" shape="154.17,-118.50 150.17,-119.22"/>
    </edge>
    <edge id=":Node5_22" function="internal">
        <lane id=":Node5_22_0" index="0" disallow="pedestrian" speed="11.36" length="4.04" shape="179.77,-121.85 183.77,-122.42"/>
    </edge>
    <edge id=":Node5_6" function="internal">
        <lane id=":Node5_6_0" index="0" allow="bus" speed="6.51" length="4.75" shape="183.77,-109.62 181.32,-109.27 179.57,-108.22 179.45,-108.02"/>
        <lane id=":Node5_6_1" index="1" allow="bus" speed="7.33" length="7.08" shape="183.77,-109.62 179.92,-109.27 177.17,-108.22 176.98,-108.02"/>
    </edge>
    <edge id=":Node5_8" function="internal">
        <lane id=":Node5_8_0" index="0" allow="bus" speed="13.89" length="33.70" shape="183.77,-109.62 150.17,-109.62"/>
        <lane id=":Node5_8_1" index="1" allow="bus" speed="13.89" length="33.70" shape="183.77,-109.62 173.77,-110.12 166.97,-111.22 160.17,-112.32 150.17,-112.82"/>
    </edge>
    <edge id=":Node5_10" function="internal">
        <lane id=":Node5_10_0" index="0" disallow="pedestrian" speed="8.67" length="4.60" shape="183.77,-112.82 179.20,-112.34"/>
    </edge>
    <edge id=":Node5_11" function="internal">
        <lane id=":Node5_11_0" index="0" disallow="pedestrian" speed="13.89" length="33.60" shape="183.77,-116.02 150.17,-116.02"/>
        <lane id=":Node5_11_1" index="1" disallow="pedestrian" speed="13.89" length="33.60" shape="183.77,-119.22 150.17,-119.22"/>
    </edge>
    <edge id=":Node5_23" function="internal">
        <lane id=":Node5_23_0" index="0" allow="bus" speed="6.51" length="4.28" shape="179.45,-108.02 178.52,-106.47 178.17,-104.02"/>
        <lane id=":Node5_23_1" index="0" allow="bus" speed="7.33" length="4.64" shape="176.98,-108.02 175.52,-106.47 174.97,-104.02"/>
    </edge>
    <edge id=":Node5_24" function="internal">
        <lane id=":Node5_24_0" index="0" disallow="pedestrian" speed="8.67" length="12.25" shape="179.20,-112.34 178.52,-112.27 174.77,-110.62 172.52,-107.87 171.77,-104.02"/>
    </edge>
    <edge id=":Node5_13" function="internal">
        <lane id=":Node5_13_0" index="0" allow="bus" speed="13.89" length="33.70" shape="150.17,-132.02 183.77,-132.02"/>
        <lane id=":Node5_13_1" index="1" allow="bus" speed="13.89" length="33.70" shape="150.17,-132.02 160.17,-131.52 166.97,-130.42 173.77,-129.32 183.77,-128.82"/>
    </edge>
    <edge id=":Node5_15" function="internal">
        <lane id=":Node5_15_0" index="0" allow="bus" speed="13.15" length="21.50" shape="150.17,-132.02 159.62,-130.27 166.37,-125.02 167.77,-121.99"/>
    </edge>
    <edge id=":Node5_16" function="internal">
        <lane id=":Node5_16_0" index="0" disallow="pedestrian" speed="13.89" length="33.80" shape="150.17,-128.82 160.17,-128.32 166.97,-127.22 173.77,-126.12 183.77,-125.62"/>
        <lane id=":Node5_16_1" index="1" disallow="pedestrian" speed="13.89" length="33.80" shape="150.17,-125.62 160.17,-125.12 166.97,-124.02 173.77,-122.92 183.77,-122.42"/>
    </edge>
    <edge id=":Node5_18" function="internal">
        <lane id=":Node5_18_0" index="0" disallow="pedestrian" speed="11.36" length="5.01" shape="150.17,-122.42 155.13,-121.71"/>
    </edge>
    <edge id=":Node5_25" function="internal">
        <lane id=":Node5_25_0" index="0" allow="bus" speed="13.15" length="18.63" shape="167.77,-121.99 170.42,-116.27 171.77,-104.02"/>
    </edge>
    <edge id=":Node5_26" function="internal">
        <lane id=":Node5_26_0" index="0" disallow="pedestrian" speed="11.36" length="24.66" shape="155.13,-121.71 158.22,-121.27 163.97,-117.82 167.42,-112.07 168.57,-104.02"/>
    </edge>
    <edge id=":Node5_c0" function="crossing" crossingEdges="Node2_5_NB Node2_5_SB">
        <lane id=":Node5_c0_0" index="0" allow="pedestrian" speed="2.78" length="25.60" width="4.00" shape="179.77,-106.02 154.17,-106.02" outlineShape="179.87,-104.02 154.07,-104.02 154.06,-105.24 153.73,-106.24 153.17,-107.02 152.39,-107.58 152.06,-107.69 154.17,-108.02 179.77,-108.02 181.88,-107.69 181.55,-107.58 180.77,-107.02 180.21,-106.24 179.88,-105.24"/>
    </edge>
    <edge id=":Node5_c1" function="crossing" crossingEdges="Node5_6_EB Node6_5_WB">
        <lane id=":Node5_c1_0" index="0" allow="pedestrian" speed="2.78" length="25.60" width="4.00" shape="181.77,-133.62 181.77,-108.02" outlineShape="183.77,-133.72 183.77,-107.92 179.77,-104.02 181.77,-104.02 183.77,-106.02 183.77,-108.02 179.77,-104.02 179.77,-133.62"/>
    </edge>
    <edge id=":Node5_c2" function="crossing" crossingEdges="Node5_4_WB Node4_5_EB">
        <lane id=":Node5_c2_0" index="0" allow="pedestrian" speed="2.78" length="25.60" width="4.00" shape="152.17,-108.02 152.17,-133.62" outlineShape="150.17,-107.92 150.17,-133.72 154.17,-133.62 154.17,-104.02 154.06,-105.24 153.73,-106.24 153.17,-107.02 152.39,-107.58 151.39,-107.91"/>
    </edge>
    <edge id=":Node5_w0" function="walkingarea">
        <lane id=":Node5_w0_0" index="0" allow="pedestrian" speed="2.78" length="3.30" width="4.00" shape="150.17,-108.02 150.17,-106.02 152.17,-104.02 154.17,-104.02 154.06,-105.24 153.73,-106.24 153.17,-107.02 152.39,-107.58 151.39,-107.91"/>
    </edge>
    <edge id=":Node5_w1" function="walkingarea">
        <lane id=":Node5_w1_0" index="0" allow="pedestrian" speed="2.78" length="3.30" width="4.00" shape="179.77,-104.02 181.77,-104.02 183.77,-106.02 183.77,-108.02 182.55,-107.91 181.55,-107.58 180.77,-107.02 180.21,-106.24 179.88,-105.24"/>
    </edge>
    <edge id=":Node5_w2" function="walkingarea">
        <lane id=":Node5_w2_0" index="0" allow="pedestrian" speed="2.78" length="21.82" width="4.00" shape="179.77,-133.62 183.77,-133.62 183.77,-135.62 150.17,-135.62 150.17,-133.62 154.17,-133.62"/>
    </edge>
    <edge id=":Node6_0" function="internal">