<?xml version="1.0" encoding="UTF-8"?> 
<routes xmlns:xsi="http://www.w3.org/2001/XMLSchema-instance" xsi:noNamespaceSchemaLocation="http://sumo.dlr.de/xsd/routes_file.xsd"> 
    <vType id="car" length="5.00" maxSpeed="15.00" accel="2.0" decel="4.0" sigma="0.5" guiShape="passenger" minGap="2.5" jmIgnoreKeepClearTime="-1" tau="1.5"/> 
    <vType id="bus" length="12.00" maxSpeed="12.00" vClass="bus" guiShape="bus" color="yellow" accel="1.2" decel="4.0" jmIgnoreKeepClearTime="-1"/> 
    <vType id="ambulance" length="6.00" maxSpeed="25.00" vClass="emergency" guiShape="emergency" accel="3.0" decel="5.0" minGap="3.0" color="red" speedFactor="1.5"> 
        <param key="has.bluelight.device" value="true"/><param key="jmIgnoreFoeProb" value="0.0"/> 
    </vType> 
    <vType id="firetruck" length="10.00" maxSpeed="20.00" vClass="emergency" guiShape="firebrigade" accel="2.5" decel="4.5" minGap="3.0" color="orange" speedFactor="1.3"> 
        <param key="has.bluelight.device" value="true"/><param key="jmIgnoreFoeProb" value="0.0"/> 
    </vType> 

    <flow id="W_S" type="car" begin="0" end="6000" vehsPerHour="450" from="Node1_2_EB" to="Node2_3_EB" departLane="best"/> 
    <flow id="W_L" type="car" begin="0" end="6000" vehsPerHour="100" from="Node1_2_EB" to="Node2_7_NB" departLane="best"/> 
    <flow id="W_R" type="car" begin="0" end="6000" vehsPerHour="100" from="Node1_2_EB" to="Node2_5_SB" departLane="best"/> 

    <flow id="E_S" type="car" begin="0" end="6000" vehsPerHour="450" from="Node2_3_WB" to="Node1_2_WB" departLane="best"/> 
    <flow id="E_L" type="car" begin="0" end="6000" vehsPerHour="100" from="Node2_3_WB" to="Node2_5_SB" departLane="best"/> 
    <flow id="E_R" type="car" begin="0" end="6000" vehsPerHour="100" from="Node2_3_WB" to="Node2_7_NB" departLane="best"/> 

    <flow id="N_S" type="car" begin="0" end="6000" vehsPerHour="450" from="Node2_5_NB" to="Node2_7_NB" departLane="best"/> 
    <flow id="N_L" type="car" begin="0" end="6000" vehsPerHour="100" from="Node2_5_NB" to="Node1_2_WB" departLane="best"/> 
    <flow id="N_R" type="car" begin="0" end="6000" vehsPerHour="100" from="Node2_5_NB" to="Node2_3_EB" departLane="best"/> 

    <flow id="S_S" type="car" begin="0" end="6000" vehsPerHour="450" from="Node2_7_SB" to="Node2_5_SB" departLane="best"/> 
    <flow id="S_L" type="car" begin="0" end="6000" vehsPerHour="100" from="Node2_7_SB" to="Node2_3_EB" departLane="best"/> 
    <flow id="S_R" type="car" begin="0" end="6000" vehsPerHour="100" from="Node2_7_SB" to="Node1_2_WB" departLane="best"/> 

    <personFlow id="pf_WE" begin="0" end="6000" personsPerHour="80"><personTrip from="Node1_2_EB" to="Node2_3_EB"/></personFlow> 
    <personFlow id="pf_EW" begin="0" end="6000" personsPerHour="80"><personTrip from="Node2_3_WB" to="Node1_2_WB"/></personFlow> 
    <personFlow id="pf_NS" begin="0" end="6000" personsPerHour="80"><personTrip from="Node2_5_NB" to="Node2_7_NB"/></personFlow> 
    <personFlow id="pf_SN" begin="0" end="6000" personsPerHour="80"><personTrip from="Node2_7_SB" to="Node2_5_SB"/></personFlow> 

    <flow id="bus_W" type="bus" begin="10" end="6000" vehsPerHour="30" from="Node1_2_EB" to="Node2_3_EB" departLane="best"/> 
    <flow id="amb_W" type="ambulance" begin="50" end="6000" vehsPerHour="5" from="Node1_2_EB" to="Node2_3_EB" departLane="best"/> 
    <flow id="bus_E" type="bus" begin="100" end="6000" vehsPerHour="30" from="Node2_3_WB" to="Node1_2_WB" departLane="best"/> 
    <flow id="fire_W" type="firetruck" begin="140" end="6000" vehsPerHour="5" from="Node1_2_EB" to="Node2_7_NB" departLane="best"/> 
    <flow id="bus_N" type="bus" begin="190" end="6000" vehsPerHour="30" from="Node2_5_NB" to="Node2_7_NB" departLane="best"/> 
    <flow id="amb_E" type="ambulance" begin="230" end="6000" vehsPerHour="5" from="Node2_3_WB" to="Node1_2_WB" departLane="best"/> 
    <flow id="bus_S" type="bus" begin="280" end="6000" vehsPerHour="30" from="Node2_7_SB" to="Node2_5_SB" departLane="best"/> 
    <flow id="fire_E" type="firetruck" begin="320" end="6000" vehsPerHour="5" from="Node2_3_WB" to="Node2_5_SB" departLane="best"/> 
    <flow id="amb_N" type="ambulance" begin="410" end="6000" vehsPerHour="5" from="Node2_5_NB" to="Node2_7_NB" departLane="best"/> 
    <flow id="fire_N" type="firetruck" begin="500" end="6000" vehsPerHour="5" from="Node2_5_NB" to="Node1_2_WB" departLane="best"/> 
    <flow id="amb_S" type="ambulance" begin="590" end="6000" vehsPerHour="5" from="Node2_7_SB" to="Node2_5_SB" departLane="best"/> 
    <flow id="fire_S" type="firetruck" begin="680" end="6000" vehsPerHour="5" from="Node2_7_SB" to="Node2_3_EB" departLane="best"/> 
</routes> 